plots/csv/rotor_angle_dev_bus15_julia.csv
t_s,rotor_angle_dev_rad,bus_voltage_angle_dev_rad,angle_source,angle_is_exact_bus_voltage
0.0,0.0,0.0,Vmag_get_voltage_magnitude_series__angle_get_voltage_angle_series,true
0.01,7.986666883397221e-16,7.986666883397221e-16,Vmag_get_voltage_magnitude_series__angle_get_voltage_angle_series,true
0.02,1.7486012637846646e-16,1.7486012637846646e-16,Vmag_get_voltage_magnitude_series__angle_get_voltage_angle_series,true
0.03,-1.3183898417433708e-17,-1.3183898417433708e-17,Vmag_get_voltage_magnitude_series__angle_get_voltage_angle_series,true
0.04,3.747002708108947e-17,3.747002708108947e-17,Vmag_get_voltage_magnitude_series__angle_get_voltage_angle_series,true
0.05,3.4000580129137274e-17,3.4000580129137274e-17,Vmag_get_voltage_magnitude_series__angle_get_voltage_angle_series,true
0.06,3.955169525225488e-17,3.955169525225488e-17,Vmag_get_voltage_magnitude_series__angle_get_voltage_angle_series,true
0.07,3.7747582837254907e-16,3.7747582837254907e-16,Vmag_get_voltage_magnitude_series__angle_get_voltage_angle_series,true
0.08,-1.110223024626713e-17,-1.110223024626713e-17,Vmag_get_voltage_magnitude_series__angle_get_voltage_angle_series,true
0.09,-8.187894806611055e-17,-8.187894806611055e-17,Vmag_get_voltage_magnitude_series__angle_get_voltage_angle_series,true
0.1,-1.1796119636642288e-16,-1.1796119636642288e-16,Vmag_get_voltage_magnitude_series__angle_get_voltage_angle_series,true
0.11,-0.003445219060016741,-0.003445219060016741,Vmag_get_voltage_magnitude_series__angle_get_voltage_angle_series,true
0.12,-0.0035915232749103116,-0.0035915232749103116,Vmag_get_voltage_magnitude_series__angle_get_voltage_angle_series,true
0.13,-0.003380034784341303,-0.003380034784341303,Vmag_get_voltage_magnitude_series__angle_get_voltage_angle_series,true
0.14,-0.0033730711832374253,-0.0033730711832374253,Vmag_get_voltage_magnitude_series__angle_get_voltage_angle_series,true
0.15,-0.0034353894813737543,-0.0034353894813737543,Vmag_get_voltage_magnitude_series__angle_get_voltage_angle_series,true
0.16,-0.003581171110146952,-0.003581171110146952,Vmag_get_voltage_magnitude_series__angle_get_voltage_angle_series,true
0.17,-0.003780516854119496,-0.003780516854119496,Vmag_get_voltage_magnitude_series__angle_get_voltage_angle_series,true
0.18,-0.004023290735098783,-0.004023290735098783,Vmag_get_voltage_magnitude_series__angle_get_voltage_angle_series,true
0.19,-0.004295792223715896,-0.004295792223715896,Vmag_get_voltage_magnitude_series__angle_get_voltage_angle_series,true
0.2,-0.004591560620705877,-0.004591560620705877,Vmag_get_voltage_magnitude_series__angle_get_voltage_angle_series,true
0.21,-0.004904455414057301,-0.004904455414057301,Vmag_get_voltage_magnitude_series__angle_get_voltage_angle_series,true
0.22,-0.0052300082440213365,-0.0052300082440213365,Vmag_get_voltage_magnitude_series__angle_get_voltage_angle_series,true
0.23,-0.005564368581208754,-0.005564368581208754,Vmag_get_voltage_magnitude_series__angle_get_voltage_angle_series,true
0.24,-0.005904636514498945,-0.005904636514498945,Vmag_get_voltage_magnitude_series__angle_get_voltage_angle_series,true
0.25,-0.006248570074633775,-0.006248570074633775,Vmag_get_voltage_magnitude_series__angle_get_voltage_angle_series,true
0.26,-0.006594575406934333,-0.006594575406934333,Vmag_get_voltage_magnitude_series__angle_get_voltage_angle_series,true
0.27,-0.006941579956545134,-0.006941579956545134,Vmag_get_voltage_magnitude_series__angle_get_voltage_angle_series,true
0.28,-0.007288959316163725,-0.007288959316163725,Vmag_get_voltage_magnitude_series__angle_get_voltage_angle_series,true
0.29,-0.007636444865173746,-0.007636444865173746,Vmag_get_voltage_magnitude_series__angle_get_voltage_angle_series,true
0.3,-0.007984042304983782,-0.007984042304983782,Vmag_get_voltage_magnitude_series__angle_get_voltage_angle_series,true
0.31,-0.008331952929068801,-0.008331952929068801,Vmag_get_voltage_magnitude_series__angle_get_voltage_angle_series,true
0.32,-0.00868050149945526,-0.00868050149945526,Vmag_get_voltage_magnitude_series__angle_get_voltage_angle_series,true
0.33,-0.009030072126649144,-0.009030072126649144,Vmag_get_voltage_magnitude_series__angle_get_voltage_angle_series,true
0.34,-0.009381052685984827,-0.009381052685984827,Vmag_get_voltage_magnitude_series__angle_get_voltage_angle_series,true
0.35,-0.009733789062328605,-0.009733789062328605,Vmag_get_voltage_magnitude_series__angle_get_voltage_angle_series,true
0.36,-0.010088549345728996,-0.010088549345728996,Vmag_get_voltage_magnitude_series__angle_get_voltage_angle_series,true
0.37,-0.010445497705546503,-0.010445497705546503,Vmag_get_voltage_magnitude_series__angle_get_voltage_angle_series,true
0.38,-0.010804678008693414,-0.010804678008693414,Vmag_get_voltage_magnitude_series__angle_get_voltage_angle_series,true
0.39,-0.01116600550995272,-0.01116600550995272,Vmag_get_voltage_magnitude_series__angle_get_voltage_angle_series,true
0.4,-0.011529266379086021,-0.011529266379086021,Vmag_get_voltage_magnitude_series__angle_get_voltage_angle_series,true
0.41,-0.011894123423122524,-0.011894123423122524,Vmag_get_voltage_magnitude_series__angle_get_voltage_angle_series,true
0.42,-0.012260126466406717,-0.012260126466406717,Vmag_get_voltage_magnitude_series__angle_get_voltage_angle_series,true
0.43,-0.012626726866383782,-0.012626726866383782,Vmag_get_voltage_magnitude_series__angle_get_voltage_angle_series,true
0.44,-0.01299329402743402,-0.01299329402743402,Vmag_get_voltage_magnitude_series__angle_get_voltage_angle_series,true
0.45,-0.013359133686974885,-0.013359133686974885,Vmag_get_voltage_magnitude_series__angle_get_voltage_angle_series,true
0.46,-0.013723506391711195,-0.013723506391711195,Vmag_get_voltage_magnitude_series__angle_get_voltage_angle_series,true
0.47,-0.014085645720990964,-0.014085645720990964,Vmag_get_voltage_magnitude_series__angle_get_voltage_angle_series,true
0.48,-0.014444775615172363,-0.014444775615172363,Vmag_get_voltage_magnitude_series__angle_get_voltage_angle_series,true
0.49,-0.01480012614961407,-0.01480012614961407,Vmag_get_voltage_magnitude_series__angle_get_voltage_angle_series,true
0.5,-0.015150947724878279,-0.015150947724878279,Vmag_get_voltage_magnitude_series__angle_get_voltage_angle_series,true
0.51,-0.015496523189841481,-0.015496523189841481,Vmag_get_voltage_magnitude_series__angle_get_voltage_angle_series,true
0.52,-0.015836177983029276,-0.015836177983029276,Vmag_get_voltage_magnitude_series__angle_get_voltage_angle_series,true
0.53,-0.01616928822796549,-0.01616928822796549,Vmag_get_voltage_magnitude_series__angle_get_voltage_angle_series,true
0.54,-0.016495286822521892,-0.016495286822521892,Vmag_get_voltage_magnitude_series__angle_get_voltage_angle_series,true
0.55,-0.016813667720355932,-0.016813667720355932,Vmag_get_voltage_magnitude_series__angle_get_voltage_angle_series,true
0.56,-0.01712398839114537,-0.01712398839114537,Vmag_get_voltage_magnitude_series__angle_get_voltage_angle_series,true
0.57,-0.017425870902678785,-0.017425870902678785,Vmag_get_voltage_magnitude_series__angle_get_voltage_angle_series,true
0.58,-0.017719001601556435,-0.017719001601556435,Vmag_get_voltage_magnitude_series__angle_get_voltage_angle_series,true
0.59,-0.018003129645188895,-0.018003129645188895,Vmag_get_voltage_magnitude_series__angle_get_voltage_angle_series,true
0.6,-0.01827806478345618,-0.01827806478345618,Vmag_get_voltage_magnitude_series__angle_get_voltage_angle_series,true
0.61,-0.018543674284654216,-0.018543674284654216,Vmag_get_voltage_magnitude_series__angle_get_voltage_angle_series,true
0.62,-0.01879987943705294,-0.01879987943705294,Vmag_get_voltage_magnitude_series__angle_get_voltage_angle_series,true
0.63,-0.019046651724292114,-0.019046651724292114,Vmag_get_voltage_magnitude_series__angle_get_voltage_angle_series,true
0.64,-0.019284008760779712,-0.019284008760779712,Vmag_get_voltage_magnitude_series__angle_get_voltage_angle_series,true
0.65,-0.019512010217654894,-0.019512010217654894,Vmag_get_voltage_magnitude_series__angle_get_voltage_angle_series,true
0.66,-0.01973075378247034,-0.01973075378247034,Vmag_get_voltage_magnitude_series__angle_get_voltage_angle_series,true
0.67,-0.019940371231009918,-0.019940371231009918,Vmag_get_voltage_magnitude_series__angle_get_voltage_angle_series,true
0.68,-0.020141024731826045,-0.020141024731826045,Vmag_get_voltage_magnitude_series__angle_get_voltage_angle_series,true
0.69,-0.020332903342606193,-0.020332903342606193,Vmag_get_voltage_magnitude_series__angle_get_voltage_angle_series,true
0.7,-0.020516219787784534,-0.020516219787784534,Vmag_get_voltage_magnitude_series__angle_get_voltage_angle_series,true
0.71,-0.020691207480077377,-0.020691207480077377,Vmag_get_voltage_magnitude_series__angle_get_voltage_angle_series,true
0.72,-0.020858117822883177,-0.020858117822883177,Vmag_get_voltage_magnitude_series__angle_get_voltage_angle_series,true
0.73,-0.02101721773788854,-0.02101721773788854,Vmag_get_voltage_magnitude_series__angle_get_voltage_angle_series,true
0.74,-0.021168787422097556,-0.021168787422097556,Vmag_get_voltage_magnitude_series__angle_get_voltage_angle_series,true
0.75,-0.0213131183044566,-0.0213131183044566,Vmag_get_voltage_magnitude_series__angle_get_voltage_angle_series,true
0.76,-0.021450511167906267,-0.021450511167906267,Vmag_get_voltage_magnitude_series__angle_get_voltage_angle_series,true
0.77,-0.021581274423630097,-0.021581274423630097,Vmag_get_voltage_magnitude_series__angle_get_voltage_angle_series,true
0.78,-0.02170572248156909,-0.02170572248156909,Vmag_get_voltage_magnitude_series__angle_get_voltage_angle_series,true
0.79,-0.021824174236775226,-0.021824174236775226,Vmag_get_voltage_magnitude_series__angle_get_voltage_angle_series,true
0.8,-0.02193695161169035,-0.02193695161169035,Vmag_get_voltage_magnitude_series__angle_get_voltage_angle_series,true
0.81,-0.022044378151380203,-0.022044378151380203,Vmag_get_voltage_magnitude_series__angle_get_voltage_angle_series,true
0.82,-0.02214677768270258,-0.02214677768270258,Vmag_get_voltage_magnitude_series__angle_get_voltage_angle_series,true
0.83,-0.022244472971823546,-0.022244472971823546,Vmag_get_voltage_magnitude_series__angle_get_voltage_angle_series,true
0.84,-0.02233778444686784,-0.02233778444686784,Vmag_get_voltage_magnitude_series__angle_get_voltage_angle_series,true
0.85,-0.02242702892804456,-0.02242702892804456,Vmag_get_voltage_magnitude_series__angle_get_voltage_angle_series,true
0.86,-0.022512518389578254,-0.022512518389578254,Vmag_get_voltage_magnitude_series__angle_get_voltage_angle_series,true
0.87,-0.02259455877269575,-0.02259455877269575,Vmag_get_voltage_magnitude_series__angle_get_voltage_angle_series,true
0.88,-0.022673448813367508,-0.022673448813367508,Vmag_get_voltage_magnitude_series__angle_get_voltage_angle_series,true
0.89,-0.02274947895129155,-0.02274947895129155,Vmag_get_voltage_magnitude_series__angle_get_voltage_angle_series,true
0.9,-0.022822930270566952,-0.022822930270566952,Vmag_get_voltage_magnitude_series__angle_get_voltage_angle_series,true
0.91,-0.02289407352411975,-0.02289407352411975,Vmag_get_voltage_magnitude_series__angle_get_voltage_angle_series,true
0.92,-0.02296316823256044,-0.02296316823256044,Vmag_get_voltage_magnitude_series__angle_get_voltage_angle_series,true
0.93,-0.023030461852460875,-0.023030461852460875,Vmag_get_voltage_magnitude_series__angle_get_voltage_angle_series,true
0.94,-0.023096189072431102,-0.023096189072431102,Vmag_get_voltage_magnitude_series__angle_get_voltage_angle_series,true
0.95,-0.023160571161124254,-0.023160571161124254,Vmag_get_voltage_magnitude_series__angle_get_voltage_angle_series,true
0.96,-0.023223815450423915,-0.023223815450423915,Vmag_get_voltage_magnitude_series__angle_get_voltage_angle_series,true
0.97,-0.02328611492728535,-0.02328611492728535,Vmag_get_voltage_magnitude_series__angle_get_voltage_angle_series,true
0.98,-0.0233476479004796,-0.0233476479004796,Vmag_get_voltage_magnitude_series__angle_get_voltage_angle_series,true
0.99,-0.02340857781481195,-0.02340857781481195,Vmag_get_voltage_magnitude_series__angle_get_voltage_angle_series,true
1.0,-0.023469053153105504,-0.023469053153105504,Vmag_get_voltage_magnitude_series__angle_get_voltage_angle_series,true
1.01,-0.023529207434623146,-0.023529207434623146,Vmag_get_voltage_magnitude_series__angle_get_voltage_angle_series,true
1.02,-0.02358915933653624,-0.02358915933653624,Vmag_get_voltage_magnitude_series__angle_get_voltage_angle_series,true
1.03,-0.023649012894596234,-0.023649012894596234,Vmag_get_voltage_magnitude_series__angle_get_voltage_angle_series,true
1.04,-0.023708857794325452,-0.023708857794325452,Vmag_get_voltage_magnitude_series__angle_get_voltage_angle_series,true
1.05,-0.023768769757727896,-0.023768769757727896,Vmag_get_voltage_magnitude_series__angle_get_voltage_angle_series,true
1.06,-0.02382881099213635,-0.02382881099213635,Vmag_get_voltage_magnitude_series__angle_get_voltage_angle_series,true
1.07,-0.02388903071535952,-0.02388903071535952,Vmag_get_voltage_magnitude_series__angle_get_voltage_angle_series,true
1.08,-0.023949465740453688,-0.023949465740453688,Vmag_get_voltage_magnitude_series__angle_get_voltage_angle_series,true
1.09,-0.024010141114956775,-0.024010141114956775,Vmag_get_voltage_magnitude_series__angle_get_voltage_angle_series,true
1.1,-0.024071070800760618,-0.024071070800760618,Vmag_get_voltage_magnitude_series__angle_get_voltage_angle_series,true
1.11,-0.02413225839361694,-0.02413225839361694,Vmag_get_voltage_magnitude_series__angle_get_voltage_angle_series,true
1.12,-0.0241936978725328,-0.0241936978725328,Vmag_get_voltage_magnitude_series__angle_get_voltage_angle_series,true
1.13,-0.024255374372933996,-0.024255374372933996,Vmag_get_voltage_magnitude_series__angle_get_voltage_angle_series,true
1.14,-0.024317264969489265,-0.024317264969489265,Vmag_get_voltage_magnitude_series__angle_get_voltage_angle_series,true
1.15,-0.0243793394691747,-0.0243793394691747,Vmag_get_voltage_magnitude_series__angle_get_voltage_angle_series,true
1.16,-0.02444156121579188,-0.02444156121579188,Vmag_get_voltage_magnitude_series__angle_get_voltage_angle_series,true
1.17,-0.024503887874213023,-0.024503887874213023,Vmag_get_voltage_magnitude_series__angle_get_voltage_angle_series,true
1.18,-0.02456627221925005,-0.02456627221925005,Vmag_get_voltage_magnitude_series__angle_get_voltage_angle_series,true
1.19,-0.024628662908173456,-0.024628662908173456,Vmag_get_voltage_magnitude_series__angle_get_voltage_angle_series,true
1.2,-0.024691005226101903,-0.024691005226101903,Vmag_get_voltage_magnitude_series__angle_get_voltage_angle_series,true
1.21,-0.02475324182730331,-0.02475324182730331,Vmag_get_voltage_magnitude_series__angle_get_voltage_angle_series,true
1.22,-0.024815313430415063,-0.024815313430415063,Vmag_get_voltage_magnitude_series__angle_get_voltage_angle_series,true
1.23,-0.024877159498624606,-0.024877159498624606,Vmag_get_voltage_magnitude_series__angle_get_voltage_angle_series,true
1.24,-0.024938718885891865,-0.024938718885891865,Vmag_get_voltage_magnitude_series__angle_get_voltage_angle_series,true
1.25,-0.024999930443024003,-0.024999930443024003,Vmag_get_voltage_magnitude_series__angle_get_voltage_angle_series,true
1.26,-0.025060733597240013,-0.025060733597240013,Vmag_get_voltage_magnitude_series__angle_get_voltage_angle_series,true
1.27,-0.025121068884129082,-0.025121068884129082,Vmag_get_voltage_magnitude_series__angle_get_voltage_angle_series,true
1.28,-0.02518087844905613,-0.02518087844905613,Vmag_get_voltage_magnitude_series__angle_get_voltage_angle_series,true
1.29,-0.025240106503264387,-0.025240106503264387,Vmag_get_voltage_magnitude_series__angle_get_voltage_angle_series,true
1.3,-0.02529869973825143,-0.02529869973825143,Vmag_get_voltage_magnitude_series__angle_get_voltage_angle_series,true
1.31,-0.0253566077062601,-0.0253566077062601,Vmag_get_voltage_magnitude_series__angle_get_voltage_angle_series,true
1.32,-0.02541378314526211,-0.02541378314526211,Vmag_get_voltage_magnitude_series__angle_get_voltage_angle_series,true
1.33,-0.02547018227695349,-0.02547018227695349,Vmag_get_voltage_magnitude_series__angle_get_voltage_angle_series,true
1.34,-0.025525765053420107,-0.025525765053420107,Vmag_get_voltage_magnitude_series__angle_get_voltage_angle_series,true
1.35,-0.025580495363776035,-0.025580495363776035,Vmag_get_voltage_magnitude_series__angle_get_voltage_angle_series,true
1.36,-0.025634341206859264,-0.025634341206859264,Vmag_get_voltage_magnitude_series__angle_get_voltage_angle_series,true
1.37,-0.025687274812325,-0.025687274812325,Vmag_get_voltage_magnitude_series__angle_get_voltage_angle_series,true
1.38,-0.02573927273699704,-0.02573927273699704,Vmag_get_voltage_magnitude_series__angle_get_voltage_angle_series,true
1.39,-0.025790315913092176,-0.025790315913092176,Vmag_get_voltage_magnitude_series__angle_get_voltage_angle_series,true
1.4,-0.025840389664140803,-0.025840389664140803,Vmag_get_voltage_magnitude_series__angle_get_voltage_angle_series,true
1.41,-0.02588948369034323,-0.02588948369034323,Vmag_get_voltage_magnitude_series__angle_get_voltage_angle_series,true
1.42,-0.025937592014585596,-0.025937592014585596,Vmag_get_voltage_magnitude_series__angle_get_voltage_angle_series,true
1.43,-0.025984712902039585,-0.025984712902039585,Vmag_get_voltage_magnitude_series__angle_get_voltage_angle_series,true
1.44,-0.02603084875143693,-0.02603084875143693,Vmag_get_voltage_magnitude_series__angle_get_voltage_angle_series,true
1.45,-0.026076005957454858,-0.026076005957454858,Vmag_get_voltage_magnitude_series__angle_get_voltage_angle_series,true
1.46,-0.026120194748479507,-0.026120194748479507,Vmag_get_voltage_magnitude_series__angle_get_voltage_angle_series,true
1.47,-0.026163429004958494,-0.026163429004958494,Vmag_get_voltage_magnitude_series__angle_get_voltage_angle_series,true
1.48,-0.02620572605728739,-0.02620572605728739,Vmag_get_voltage_magnitude_series__angle_get_voltage_angle_series,true
1.49,-0.026247106461214607,-0.026247106461214607,Vmag_get_voltage_magnitude_series__angle_get_voltage_angle_series,true
1.5,-0.026287593764564285,-0.026287593764564285,Vmag_get_voltage_magnitude_series__angle_get_voltage_angle_series,true
1.51,-0.02632721425849514,-0.02632721425849514,Vmag_get_voltage_magnitude_series__angle_get_voltage_angle_series,true
1.52,-0.026365996716381245,-0.026365996716381245,Vmag_get_voltage_magnitude_series__angle_get_voltage_angle_series,true
1.53,-0.026403972128560924,-0.026403972128560924,Vmag_get_voltage_magnitude_series__angle_get_voltage_angle_series,true
1.54,-0.026441173426398484,-0.026441173426398484,Vmag_get_voltage_magnitude_series__angle_get_voltage_angle_series,true
1.55,-0.026477635206833973,-0.026477635206833973,Vmag_get_voltage_magnitude_series__angle_get_voltage_angle_series,true
1.56,-0.026513393453571423,-0.026513393453571423,Vmag_get_voltage_magnitude_series__angle_get_voltage_angle_series,true
1.57,-0.026548485256924947,-0.026548485256924947,Vmag_get_voltage_magnitude_series__angle_get_voltage_angle_series,true
1.58,-0.026582948541505873,-0.026582948541505873,Vmag_get_voltage_magnitude_series__angle_get_voltage_angle_series,true
1.59,-0.026616821791420574,-0.026616821791420574,Vmag_get_voltage_magnitude_series__angle_get_voltage_angle_series,true
1.6,-0.026650143788001453,-0.026650143788001453,Vmag_get_voltage_magnitude_series__angle_get_voltage_angle_series,true
1.61,-0.026682953351068003,-0.026682953351068003,Vmag_get_voltage_magnitude_series__angle_get_voltage_angle_series,true
1.62,-0.026715289090691294,-0.026715289090691294,Vmag_get_voltage_magnitude_series__angle_get_voltage_angle_series,true
1.63,-0.026747189171709283,-0.026747189171709283,Vmag_get_voltage_magnitude_series__angle_get_voltage_angle_series,true
1.64,-0.02677869108615257,-0.02677869108615257,Vmag_get_voltage_magnitude_series__angle_get_voltage_angle_series,true
1.65,-0.026809831443234178,-0.026809831443234178,Vmag_get_voltage_magnitude_series__angle_get_voltage_angle_series,true
1.66,-0.026840645770121577,-0.026840645770121577,Vmag_get_voltage_magnitude_series__angle_get_voltage_angle_series,true
1.67,-0.026871168329262268,-0.026871168329262268,Vmag_get_voltage_magnitude_series__angle_get_voltage_angle_series,true
1.68,-0.026901431951424727,-0.026901431951424727,Vmag_get_voltage_magnitude_series__angle_get_voltage_angle_series,true
1.69,-0.02693146788266599,-0.02693146788266599,Vmag_get_voltage_magnitude_series__angle_get_voltage_angle_series,true
1.7,-0.026961305653039672,-0.026961305653039672,Vmag_get_voltage_magnitude_series__angle_get_voltage_angle_series,true
1.71,-0.02699097295559448,-0.02699097295559448,Vmag_get_voltage_magnitude_series__angle_get_voltage_angle_series,true
1.72,-0.02702049554702468,-0.02702049554702468,Vmag_get_voltage_magnitude_series__angle_get_voltage_angle_series,true
1.73,-0.027049897165576025,-0.027049897165576025,Vmag_get_voltage_magnitude_series__angle_get_voltage_angle_series,true
1.74,-0.02707919946189502,-0.02707919946189502,Vmag_get_voltage_magnitude_series__angle_get_voltage_angle_series,true
1.75,-0.02710842195114247,-0.02710842195114247,Vmag_get_voltage_magnitude_series__angle_get_voltage_angle_series,true
1.76,-0.027137581979711563,-0.027137581979711563,Vmag_get_voltage_magnitude_series__angle_get_voltage_angle_series,true
1.77,-0.027166694706912436,-0.027166694706912436,Vmag_get_voltage_magnitude_series__angle_get_voltage_angle_series,true
1.78,-0.027195773104316437,-0.027195773104316437,Vmag_get_voltage_magnitude_series__angle_get_voltage_angle_series,true
1.79,-0.02722482796904293,-0.02722482796904293,Vmag_get_voltage_magnitude_series__angle_get_voltage_angle_series,true
1.8,-0.027253867950892186,-0.027253867950892186,Vmag_get_voltage_magnitude_series__angle_get_voltage_angle_series,true
1.81,-0.02728289959301023,-0.02728289959301023,Vmag_get_voltage_magnitude_series__angle_get_voltage_angle_series,true
1.82,-0.027311927387300004,-0.027311927387300004,Vmag_get_voltage_magnitude_series__angle_get_voltage_angle_series,true
1.83,-0.027340953837685523,-0.027340953837685523,Vmag_get_voltage_magnitude_series__angle_get_voltage_angle_series,true
1.84,-0.02736997953781365,-0.02736997953781365,Vmag_get_voltage_magnitude_series__angle_get_voltage_angle_series,true
1.85,-0.02739900325723967,-0.02739900325723967,Vmag_get_voltage_magnitude_series__angle_get_voltage_angle_series,true
1.86,-0.02742802203608826,-0.02742802203608826,Vmag_get_voltage_magnitude_series__angle_get_voltage_angle_series,true
1.87,-0.02745703128840453,-0.02745703128840453,Vmag_get_voltage_magnitude_series__angle_get_voltage_angle_series,true
1.88,-0.027486024911908,-0.027486024911908,Vmag_get_voltage_magnitude_series__angle_get_voltage_angle_series,true
1.89,-0.02751499540389809,-0.02751499540389809,Vmag_get_voltage_magnitude_series__angle_get_voltage_angle_series,true
1.9,-0.027543933981536265,-0.027543933981536265,Vmag_get_voltage_magnitude_series__angle_get_voltage_angle_series,true
1.91,-0.027572830705678845,-0.027572830705678845,Vmag_get_voltage_magnitude_series__angle_get_voltage_angle_series,true
1.92,-0.027601674608974537,-0.027601674608974537,Vmag_get_voltage_magnitude_series__angle_get_voltage_angle_series,true
1.93,-0.027630453823237245,-0.027630453823237245,Vmag_get_voltage_magnitude_series__angle_get_voltage_angle_series,true
1.94,-0.027659155709589874,-0.027659155709589874,Vmag_get_voltage_magnitude_series__angle_get_voltage_angle_series,true
1.95,-0.027687766988010933,-0.027687766988010933,Vmag_get_voltage_magnitude_series__angle_get_voltage_angle_series,true
1.96,-0.027716273864556065,-0.027716273864556065,Vmag_get_voltage_magnitude_series__angle_get_voltage_angle_series,true
1.97,-0.027744662159299455,-0.027744662159299455,Vmag_get_voltage_magnitude_series__angle_get_voltage_angle_series,true
1.98,-0.02777291742860719,-0.02777291742860719,Vmag_get_voltage_magnitude_series__angle_get_voltage_angle_series,true
1.99,-0.027801025085971036,-0.027801025085971036,Vmag_get_voltage_magnitude_series__angle_get_voltage_angle_series,true
...
